/*--------------------------------*- C++ -*----------------------------------*\
| =========                 |                                                 |
| \\      /  F ield         | OpenFOAM: The Open Source CFD Toolbox           |
|  \\    /   O peration     | Version:  2.3.x                                 |
|   \\  /    A nd           | Web:      www.OpenFOAM.org                      |
|    \\/     M anipulation  |                                                 |
|*---------------------------------------------------------------------------*|
|  File created by CFD support s.r.o., Thu May  7 08:31:01 2015               |
|                    http://www.cdfsupport.com                                |
\*---------------------------------------------------------------------------*/
FoamFile
{
    version     2.3;
    format      ascii;
    class       dictionary;
    location    "system";
    object      decomposeParDict;
}
// * * * * * * * * * * * * * * * * * * * * * * * * * * * * * * * * * * * * * //
numberOfSubdomains 8;
 
method          simple;
 
simpleCoeffs
{
    n               (1 1 8);
    delta           0.001;
}
 
hierarchicalCoeffs
{
    n               (1 1 1);
    delta           0.001;
    order           xyz;
}
 
metisCoeffs
{
    processorWeights 
    (
        1
        1
        1
    );
}
 
manualCoeffs
{
    dataFile        ;
}
 
distributed     no;
 
roots           
(
);

// ************************************************************************* //
